21

C -3.348876 -1.104102  0.092003 13
H -4.124123 -0.653389  0.706687 2
H -2.951861 -1.980189  0.598472 2
H -3.807012 -1.406270 -0.846705 2
C -2.300341 -0.058951 -0.201255
N -1.038835 -0.369446  0.196744
H -0.811135 -1.277021  0.569166
O -2.566272  1.001572 -0.755630
C  0.064492  0.515668 -0.083819
H -0.036365  0.901676 -1.098992
C  1.33273  -0.300295  0.006002
O  1.398166 -1.432430  0.437984
O  2.388304  0.400748 -0.426959
C  3.638670 -0.300308 -0.328889
H  4.384914  0.386211 -0.709372
H  3.845167 -0.559805  0.705564
H  3.60964  -1.207538 -0.925535
C  0.118349  1.695699  0.886351
H -0.815639  2.246160  0.812979
H  0.241044  1.334061  1.906454
H  0.945434  2.356851  0.638558
